3
Lattice="100.0 0.0 0.0 0.0 100.0 0.0 0.0 0.0 100.0" Properties=species:S:1:pos:R:3:F_lj:R:3 _Index_FullTrainingSet=0 E_lj=447.40100301767563 appears_in_committee="1 3 5 6 8" pbc="F F F"
O       -1.16954488      -0.00000000       0.00000000       2.07189248       0.00000000       0.00000000
C        0.00000000       0.00000000      -0.00000000   -8436.80972524       0.00000000       0.00000000
O        0.66954488       0.00000000      -0.00000000    8434.73783277       0.00000000       0.00000000
3
Lattice="100.0 0.0 0.0 0.0 100.0 0.0 0.0 0.0 100.0" Properties=species:S:1:pos:R:3:F_lj:R:3 _Index_FullTrainingSet=1 E_lj=37.6864504997281 appears_in_committee="1 2 5 6 9" pbc="F F F"
O       -1.16954488      -0.00000000       0.00000000       1.94959641       0.00000000       0.00000000
C        0.00000000       0.00000000      -0.00000000    -686.51940142       0.00000000       0.00000000
O        0.80590852       0.00000000      -0.00000000     684.56980502       0.00000000       0.00000000
3
Lattice="100.0 0.0 0.0 0.0 100.0 0.0 0.0 0.0 100.0" Properties=species:S:1:pos:R:3:F_lj:R:3 _Index_FullTrainingSet=2 E_lj=-0.6438122260115658 appears_in_committee="1 2 5 6 9" pbc="F F F"
O       -1.16954488      -0.00000000       0.00000000       1.86023314       0.00000000       0.00000000
C        0.00000000       0.00000000      -0.00000000     -31.94401496       0.00000000       0.00000000
O        0.98772670       0.00000000      -0.00000000      30.08378183       0.00000000       0.00000000
3
Lattice="100.0 0.0 0.0 0.0 100.0 0.0 0.0 0.0 100.0" Properties=species:S:1:pos:R:3:F_lj:R:3 _Index_FullTrainingSet=3 E_lj=-1.9630289630844797 appears_in_committee="1 2 5 6 9" pbc="F F F"
O       -1.16954488      -0.00000000       0.00000000       1.82292822       0.00000000       0.00000000
C        0.00000000       0.00000000      -0.00000000      -1.66040137       0.00000000       0.00000000
O        1.12409033       0.00000000      -0.00000000      -0.16252684       0.00000000       0.00000000
3
Lattice="100.0 0.0 0.0 0.0 100.0 0.0 0.0 0.0 100.0" Properties=species:S:1:pos:R:3:F_lj:R:3 _Index_FullTrainingSet=4 E_lj=-1.596993146139846 appears_in_committee="1 3 5 7 9" pbc="F F F"
O       -1.16954488      -0.00000000       0.00000000       1.79381392       0.00000000       0.00000000
C        0.00000000       0.00000000      -0.00000000       0.45915589       0.00000000       0.00000000
O        1.30590852       0.00000000       0.00000000      -2.25296981       0.00000000       0.00000000
3
Lattice="100.0 0.0 0.0 0.0 100.0 0.0 0.0 0.0 100.0" Properties=species:S:1:pos:R:3:F_lj:R:3 _Index_FullTrainingSet=5 E_lj=-1.3434096765111547 appears_in_committee="0 3 4 6 9" pbc="F F F"
O       -1.16954488      -0.00000000       0.00000000       1.78081177       0.00000000       0.00000000
C        0.00000000       0.00000000      -0.00000000      -0.31408295       0.00000000       0.00000000
O        1.44227215       0.00000000       0.00000000      -1.46672882       0.00000000       0.00000000
3
Lattice="100.0 0.0 0.0 0.0 100.0 0.0 0.0 0.0 100.0" Properties=species:S:1:pos:R:3:F_lj:R:3 _Index_FullTrainingSet=6 E_lj=-1.1868293849353155 appears_in_committee="1 3 4 7 9" pbc="F F F"
O       -1.16954488      -0.00000000       0.00000000       1.77222437       0.00000000       0.00000000
C        0.00000000       0.00000000      -0.00000000      -0.89669474       0.00000000       0.00000000
O        1.57863579       0.00000000       0.00000000      -0.87552963       0.00000000       0.00000000
3
Lattice="100.0 0.0 0.0 0.0 100.0 0.0 0.0 0.0 100.0" Properties=species:S:1:pos:R:3:F_lj:R:3 _Index_FullTrainingSet=7 E_lj=-1.0719901327713648 appears_in_committee="1 2 5 6 9" pbc="F F F"
O       -1.16954488      -0.00000000       0.00000000       1.76495177       0.00000000       0.00000000
C        0.00000000       0.00000000      -0.00000000      -1.32484452       0.00000000       0.00000000
O        1.76045397       0.00000000       0.00000000      -0.44010725       0.00000000       0.00000000
3
Lattice="100.0 0.0 0.0 0.0 100.0 0.0 0.0 0.0 100.0" Properties=species:S:1:pos:R:3:F_lj:R:3 _Index_FullTrainingSet=8 E_lj=-1.0253375039936834 appears_in_committee="0 3 4 6 9" pbc="F F F"
O       -1.16954488      -0.00000000       0.00000000       1.75204659       0.00000000       0.00000000
C        0.00000000       0.00000000      -0.00000000      -1.49204815       0.00000000       0.00000000
O        1.89681761       0.00000000       0.00000000      -0.25999844       0.00000000       0.00000000
3
Lattice="100.0 0.0 0.0 0.0 100.0 0.0 0.0 0.0 100.0" Properties=species:S:1:pos:R:3:F_lj:R:3 _Index_FullTrainingSet=9 E_lj=-0.9902733045162482 appears_in_committee="1 3 4 6 8" pbc="F F F"
O       -1.16954488      -0.00000000       0.00000000       1.75204659       0.00000000       0.00000000
C        0.00000000       0.00000000      -0.00000000      -1.61245525       0.00000000       0.00000000
O        2.07863579       0.00000000       0.00000000      -0.13959134       0.00000000       0.00000000
3
Lattice="100.0 0.0 0.0 0.0 100.0 0.0 0.0 0.0 100.0" Properties=species:S:1:pos:R:3:F_lj:R:3 _Index_FullTrainingSet=10 E_lj=-0.9748820420504242 appears_in_committee="0 2 4 6 8" pbc="F F F"
O       -1.16954488      -0.00000000       0.00000000       1.75204659       0.00000000       0.00000000
C        0.00000000       0.00000000      -0.00000000      -1.66185250       0.00000000       0.00000000
O        2.21499943       0.00000000       0.00000000      -0.09019409       0.00000000       0.00000000
3
Lattice="100.0 0.0 0.0 0.0 100.0 0.0 0.0 0.0 100.0" Properties=species:S:1:pos:R:3:F_lj:R:3 _Index_FullTrainingSet=11 E_lj=-0.9622857407222333 appears_in_committee="0 2 4 7 9" pbc="F F F"
O       -1.16954488      -0.00000000       0.00000000       1.75204659       0.00000000       0.00000000
C        0.00000000       0.00000000      -0.00000000      -1.69978766       0.00000000       0.00000000
O        2.39681761       0.00000000       0.00000000      -0.05225893       0.00000000       0.00000000
3
Lattice="100.0 0.0 0.0 0.0 100.0 0.0 0.0 0.0 100.0" Properties=species:S:1:pos:R:3:F_lj:R:3 _Index_FullTrainingSet=12 E_lj=-0.9563790996251943 appears_in_committee="1 3 4 7 8" pbc="F F F"
O       -1.16954488      -0.00000000       0.00000000       1.75204659       0.00000000       0.00000000
C        0.00000000       0.00000000      -0.00000000      -1.71646316       0.00000000       0.00000000
O        2.53318124       0.00000000       0.00000000      -0.03558343       0.00000000       0.00000000
3
Lattice="100.0 0.0 0.0 0.0 100.0 0.0 0.0 0.0 100.0" Properties=species:S:1:pos:R:3:F_lj:R:3 _Index_FullTrainingSet=13 E_lj=-0.952319955906694 appears_in_committee="1 2 4 7 8" pbc="F F F"
O       -1.16954488      -0.00000000       0.00000000       1.75204659       0.00000000       0.00000000
C        0.00000000       0.00000000      -0.00000000      -1.72734391       0.00000000       0.00000000
O        2.66954488       0.00000000       0.00000000      -0.02470268       0.00000000       0.00000000
3
Lattice="100.0 0.0 0.0 0.0 100.0 0.0 0.0 0.0 100.0" Properties=species:S:1:pos:R:3:F_lj:R:3 _Index_FullTrainingSet=14 E_lj=-0.9487276967963708 appears_in_committee="0 2 4 7 9" pbc="F F F"
O       -1.16954488      -0.00000000       0.00000000       1.75204659       0.00000000       0.00000000
C        0.00000000       0.00000000      -0.00000000      -1.73644301       0.00000000       0.00000000
O        2.85136306       0.00000000       0.00000000      -0.01560358       0.00000000       0.00000000
3
Lattice="100.0 0.0 0.0 0.0 100.0 0.0 0.0 0.0 100.0" Properties=species:S:1:pos:R:3:F_lj:R:3 _Index_FullTrainingSet=15 E_lj=-0.9469142984200198 appears_in_committee="0 2 5 7 8" pbc="F F F"
O       -1.16954488      -0.00000000       0.00000000       1.75204659       0.00000000       0.00000000
C        0.00000000       0.00000000      -0.00000000      -1.74078493       0.00000000       0.00000000
O        2.98772670       0.00000000       0.00000000      -0.01126166       0.00000000       0.00000000
3
Lattice="100.0 0.0 0.0 0.0 100.0 0.0 0.0 0.0 100.0" Properties=species:S:1:pos:R:3:F_lj:R:3 _Index_FullTrainingSet=16 E_lj=-0.946778041737247 appears_in_committee="0 3 5 7 9" pbc="F F F"
O       -1.16954488      -0.00000000       0.00000000       1.75204659       0.00000000       0.00000000
C        0.00000000       0.00000000      -0.00000000      -1.75204659       0.00000000       0.00000000
O        3.16954488       0.00000000       0.00000000       0.00000000       0.00000000       0.00000000
3
Lattice="100.0 0.0 0.0 0.0 100.0 0.0 0.0 0.0 100.0" Properties=species:S:1:pos:R:3:F_lj:R:3 _Index_FullTrainingSet=17 E_lj=-0.946778041737247 appears_in_committee="1 2 5 6 9" pbc="F F F"
O       -1.16954488      -0.00000000       0.00000000       1.75204659       0.00000000       0.00000000
C        0.00000000       0.00000000      -0.00000000      -1.75204659       0.00000000       0.00000000
O        3.30590852       0.00000000       0.00000000       0.00000000       0.00000000       0.00000000
3
Lattice="100.0 0.0 0.0 0.0 100.0 0.0 0.0 0.0 100.0" Properties=species:S:1:pos:R:3:F_lj:R:3 _Index_FullTrainingSet=18 E_lj=-0.946778041737247 appears_in_committee="0 2 4 6 8" pbc="F F F"
O       -1.16954488      -0.00000000       0.00000000       1.75204659       0.00000000       0.00000000
C        0.00000000       0.00000000      -0.00000000      -1.75204659       0.00000000       0.00000000
O        3.44227215       0.00000000       0.00000000       0.00000000       0.00000000       0.00000000
3
Lattice="100.0 0.0 0.0 0.0 100.0 0.0 0.0 0.0 100.0" Properties=species:S:1:pos:R:3:F_lj:R:3 _Index_FullTrainingSet=19 E_lj=-0.946778041737247 appears_in_committee="0 2 4 7 8" pbc="F F F"
O       -1.16954488      -0.00000000       0.00000000       1.75204659       0.00000000       0.00000000
C        0.00000000       0.00000000      -0.00000000      -1.75204659       0.00000000       0.00000000
O        3.62409033       0.00000000       0.00000000       0.00000000       0.00000000       0.00000000
3
Lattice="100.0 0.0 0.0 0.0 100.0 0.0 0.0 0.0 100.0" Properties=species:S:1:pos:R:3:F_lj:R:3 _Index_FullTrainingSet=20 E_lj=-0.946778041737247 appears_in_committee="0 3 5 7 9" pbc="F F F"
O       -1.16954488      -0.00000000       0.00000000       1.75204659       0.00000000       0.00000000
C        0.00000000       0.00000000      -0.00000000      -1.75204659       0.00000000       0.00000000
O        3.76045397       0.00000000       0.00000000       0.00000000       0.00000000       0.00000000
3
Lattice="100.0 0.0 0.0 0.0 100.0 0.0 0.0 0.0 100.0" Properties=species:S:1:pos:R:3:F_lj:R:3 _Index_FullTrainingSet=21 E_lj=-0.946778041737247 appears_in_committee="1 2 5 7 8" pbc="F F F"
O       -1.16954488      -0.00000000       0.00000000       1.75204659       0.00000000       0.00000000
C        0.00000000       0.00000000      -0.00000000      -1.75204659       0.00000000       0.00000000
O        3.94227215       0.00000000       0.00000000       0.00000000       0.00000000       0.00000000
3
Lattice="100.0 0.0 0.0 0.0 100.0 0.0 0.0 0.0 100.0" Properties=species:S:1:pos:R:3:F_lj:R:3 _Index_FullTrainingSet=22 E_lj=-0.946778041737247 appears_in_committee="0 3 4 7 8" pbc="F F F"
O       -1.16954488      -0.00000000       0.00000000       1.75204659       0.00000000       0.00000000
C        0.00000000       0.00000000      -0.00000000      -1.75204659       0.00000000       0.00000000
O        4.07863579       0.00000000       0.00000000       0.00000000       0.00000000       0.00000000
3
Lattice="100.0 0.0 0.0 0.0 100.0 0.0 0.0 0.0 100.0" Properties=species:S:1:pos:R:3:F_lj:R:3 _Index_FullTrainingSet=23 E_lj=-0.946778041737247 appears_in_committee="1 3 5 7 8" pbc="F F F"
O       -1.16954488      -0.00000000       0.00000000       1.75204659       0.00000000       0.00000000
C        0.00000000       0.00000000      -0.00000000      -1.75204659       0.00000000       0.00000000
O        4.26045397       0.00000000       0.00000000       0.00000000       0.00000000       0.00000000
3
Lattice="100.0 0.0 0.0 0.0 100.0 0.0 0.0 0.0 100.0" Properties=species:S:1:pos:R:3:F_lj:R:3 _Index_FullTrainingSet=24 E_lj=-0.946778041737247 appears_in_committee="0 3 4 7 9" pbc="F F F"
O       -1.16954488      -0.00000000       0.00000000       1.75204659       0.00000000       0.00000000
C        0.00000000       0.00000000      -0.00000000      -1.75204659       0.00000000       0.00000000
O        4.39681761       0.00000000       0.00000000       0.00000000       0.00000000       0.00000000
3
Lattice="100.0 0.0 0.0 0.0 100.0 0.0 0.0 0.0 100.0" Properties=species:S:1:pos:R:3:F_lj:R:3 _Index_FullTrainingSet=25 E_lj=-0.946778041737247 appears_in_committee="1 3 5 6 8" pbc="F F F"
O       -1.16954488      -0.00000000       0.00000000       1.75204659       0.00000000       0.00000000
C        0.00000000       0.00000000      -0.00000000      -1.75204659       0.00000000       0.00000000
O        4.53318124       0.00000000       0.00000000       0.00000000       0.00000000       0.00000000
3
Lattice="100.0 0.0 0.0 0.0 100.0 0.0 0.0 0.0 100.0" Properties=species:S:1:pos:R:3:F_lj:R:3 _Index_FullTrainingSet=26 E_lj=-0.946778041737247 appears_in_committee="0 2 4 6 8" pbc="F F F"
O       -1.16954488      -0.00000000       0.00000000       1.75204659       0.00000000       0.00000000
C        0.00000000       0.00000000      -0.00000000      -1.75204659       0.00000000       0.00000000
O        4.71499943       0.00000000       0.00000000       0.00000000       0.00000000       0.00000000
3
Lattice="100.0 0.0 0.0 0.0 100.0 0.0 0.0 0.0 100.0" Properties=species:S:1:pos:R:3:F_lj:R:3 _Index_FullTrainingSet=27 E_lj=-0.946778041737247 appears_in_committee="1 2 4 7 9" pbc="F F F"
O       -1.16954488      -0.00000000       0.00000000       1.75204659       0.00000000       0.00000000
C        0.00000000       0.00000000      -0.00000000      -1.75204659       0.00000000       0.00000000
O        4.85136306       0.00000000       0.00000000       0.00000000       0.00000000       0.00000000
3
Lattice="100.0 0.0 0.0 0.0 100.0 0.0 0.0 0.0 100.0" Properties=species:S:1:pos:R:3:F_lj:R:3 _Index_FullTrainingSet=28 E_lj=-0.946778041737247 appears_in_committee="0 3 5 6 8" pbc="F F F"
O       -1.16954488      -0.00000000       0.00000000       1.75204659       0.00000000       0.00000000
C        0.00000000       0.00000000      -0.00000000      -1.75204659       0.00000000       0.00000000
O        5.03318124       0.00000000       0.00000000       0.00000000       0.00000000       0.00000000
3
Lattice="100.0 0.0 0.0 0.0 100.0 0.0 0.0 0.0 100.0" Properties=species:S:1:pos:R:3:F_lj:R:3 _Index_FullTrainingSet=29 E_lj=-0.946778041737247 appears_in_committee="0 3 5 6 8" pbc="F F F"
O       -1.16954488      -0.00000000       0.00000000       1.75204659       0.00000000       0.00000000
C        0.00000000       0.00000000      -0.00000000      -1.75204659       0.00000000       0.00000000
O        5.16954488       0.00000000       0.00000000       0.00000000       0.00000000       0.00000000
